Modified 4 Bus/Data/4busDYBal_EXP_VOLTAGES.CSV
Bus, BasekV, Node1, Magnitude1, Angle1, pu1, Node2, Magnitude2, Angle2, pu2, Node3, Magnitude3, Angle3, pu3
"SOURCEBUS", 12.47, 1,    7199.34,    0.0,   0.99997, 2,    7199.35, -120.0,   0.99997, 3,    7199.34,  120.0,   0.99997
"N2", 12.47, 1,    7103.55,   -0.3,   0.98667, 2,    7127.52, -120.4,   0.98999, 3,    7117.02,  119.6,   0.98854
"N3", 4.16, 1,     2234.2,  -34.0,   0.93023, 2,    2252.37, -153.6,   0.93779, 3,    2246.59,   86.1,   0.93539
"N4", 4.16, 1,    1875.75,  -39.8,   0.78098, 2,    2035.72, -158.8,   0.84759, 3,    1951.63,   80.3,   0.81258
"N5", 4.16, 1,    1867.56,  -40.0,   0.77758, 2,    2031.67, -158.9,    0.8459, 3,    1944.86,   80.2,   0.80976
"N6", 4.16, 1,    1852.84,  -40.3,   0.77145, 2,    2022.89, -159.1,   0.84225, 3,    1932.86,   79.9,   0.80476
"PVBUS", 0.48, 1,    224.156,  -69.6,   0.80885, 2,    227.948,  172.9,   0.82254, 3,    234.518,   50.9,   0.84624
